12
0 1
C          0.897114046520    1.065735627379   -0.074204405617
H          1.592358109227    1.892335986320   -0.116425416707
C          1.371504865365   -0.233730088507    0.093302044260
H          2.435002469337   -0.413050340604    0.173720228573
C          0.474868058458   -1.299341391513    0.164290888505
H          0.845098317521   -2.308215977374    0.290167122521
C         -0.896464552727   -1.065979698214    0.069185972284
H         -1.593864058616   -1.890772631625    0.126473477218
C         -1.372163437405    0.233694069528   -0.096395270437
H         -2.436166303518    0.414711914300   -0.158104131716
C         -0.474410551759    1.297979538517   -0.170201376563
H         -0.842876962509    2.306632991790   -0.301809132533
